[General]
network = SatelliteNetwork
record-eventlog = true
sim-time-limit = 100s  # Run simulation for 100 seconds

*.satellite1.numApps = 1
*.satellite1.app[0].typename = "TcpBasicClientApp"
*.satellite1.app[0].localAddress = "10.0.0.1"
*.satellite1.app[0].connectAddress = "10.0.0.2"
*.satellite1.app[0].connectPort = 80
*.satellite1.app[0].tSend = 1s  # Send every 1 second
*.satellite1.app[0].sendBytes = 1024B  # 1 KB packet size

*.satellite2.numApps = 1
*.satellite2.app[0].typename = "TcpSinkApp"
*.satellite2.app[0].localAddress = "10.0.0.2"
*.satellite2.app[0].localPort = 80

output-scalar-file = "results/scalars.sca"
output-vector-file = "results/vectors.vec"
**.recordScalar = true
**.recordVectors = true
**.tcp.recordStats = true
**.tcp.verbose = true